ckt7_Mon_rfi_07_der050.csv
fault_bus,fault_type,fault_R_ohm,Va_mag_pu,Va_ang_deg,Vb_mag_pu,Vb_ang_deg,Vc_mag_pu,Vc_ang_deg,Ia_mag_A,Ia_ang_deg,Ib_mag_A,Ib_ang_deg,Ic_mag_A,Ic_ang_deg
318412,SLG,0,0.243516,-91.5098,1.162228,-140.9684,1.008554,95.0742,0.3061,-118.934,1.3887,-168.4692,1.3629,67.7508
318412,SLG,10,1.100096,-25.5458,1.100458,-145.2847,1.09761,94.5052,1.259,-53.1146,1.3148,-172.7856,1.3462,67.044
318412,SLG,20,1.100062,-25.5237,1.10049,-145.2862,1.097619,94.5074,1.259,-53.0926,1.3149,-172.7871,1.3462,67.0462
318412,SLG,30,1.100051,-25.5163,1.1005,-145.2866,1.097621,94.5081,1.259,-53.0852,1.3149,-172.7875,1.3462,67.0469
318412,SLG,40,1.100045,-25.5126,1.100505,-145.2869,1.097623,94.5084,1.2589,-53.0815,1.3149,-172.7878,1.3462,67.0472
318412,LL,0,0.225703,-111.6036,0.153779,171.3856,1.049573,97.6895,0.2837,-139.0276,0.2018,144.0226,1.3116,70.2561
318412,LL,10,1.100078,-25.5501,1.100525,-145.329,1.097547,94.5082,1.259,-53.119,1.3149,-172.8298,1.3461,67.047
318412,LL,20,1.100053,-25.5259,1.100523,-145.3083,1.097587,94.5088,1.259,-53.0947,1.3149,-172.8092,1.3461,67.0477
318412,LL,30,1.100045,-25.5178,1.100523,-145.3014,1.0976,94.5091,1.2589,-53.0866,1.3149,-172.8023,1.3462,67.0479
318412,LL,40,1.100041,-25.5137,1.100522,-145.2979,1.097607,94.5092,1.2589,-53.0826,1.3149,-172.7988,1.3462,67.048
318412,3LG,0,0.140873,-103.4646,0.140879,136.7077,0.140691,16.4771,0.1771,-130.8893,0.1849,109.3445,0.1896,-10.8502
318412,3LG,10,1.100016,-25.5472,1.100509,-145.3332,1.097614,94.4639,1.2589,-53.1161,1.3149,-172.8341,1.3462,67.0027
318412,3LG,20,1.100022,-25.5244,1.100515,-145.3104,1.097621,94.4867,1.2589,-53.0933,1.3149,-172.8113,1.3462,67.0255
318412,3LG,30,1.100024,-25.5168,1.100517,-145.3028,1.097623,94.4943,1.2589,-53.0857,1.3149,-172.8037,1.3462,67.0331
318412,3LG,40,1.100025,-25.513,1.100518,-145.299,1.097624,94.4981,1.2589,-53.0819,1.3149,-172.7999,1.3462,67.0369
243937,SLG,0,0.254356,-94.7944,1.493481,-171.1915,1.638302,113.3058,0.3197,-122.2178,1.7844,161.3075,2.0093,85.8444
243937,SLG,10,1.093978,-25.7319,1.103891,-145.4676,1.098949,94.7517,1.252,-53.3008,1.319,-172.9685,1.3478,67.2905
243937,SLG,20,1.096994,-25.617,1.102213,-145.3779,1.098284,94.6311,1.2555,-53.1859,1.3169,-172.8788,1.347,67.1699
243937,SLG,30,1.098004,-25.5786,1.10165,-145.3479,1.098064,94.5907,1.2566,-53.1475,1.3163,-172.8488,1.3467,67.1295
243937,SLG,40,1.098509,-25.5594,1.101368,-145.3328,1.097955,94.5704,1.2572,-53.1282,1.3159,-172.8337,1.3466,67.1092
243937,LL,0,0.136054,-121.6831,0.123547,-148.014,1.511508,93.4669,0.171,-149.1062,0.1622,-175.3757,1.8538,66.0057
243937,LL,10,1.095301,-25.4904,1.097833,-145.697,1.102286,94.5712,1.2535,-53.0592,1.3117,-173.1979,1.3519,67.11
243937,LL,20,1.09765,-25.4957,1.099174,-145.4931,1.099969,94.5407,1.2562,-53.0646,1.3133,-172.994,1.3491,67.0796
243937,LL,30,1.09844,-25.4976,1.099622,-145.4248,1.099191,94.5304,1.2571,-53.0665,1.3139,-172.9257,1.3481,67.0692
243937,LL,40,1.098835,-25.4986,1.099847,-145.3905,1.098801,94.5252,1.2576,-53.0675,1.3141,-172.8914,1.3476,67.064
243937,3LG,0,0.034851,-86.957,0.034849,153.1975,0.03481,32.9814,0.0438,-114.3817,0.0457,125.8343,0.0469,5.6541
243937,3LG,10,1.09864,-25.6698,1.099131,-145.4562,1.096247,94.341,1.2573,-53.2387,1.3133,-172.9571,1.3445,66.8799
243937,3LG,20,1.099335,-25.5858,1.099827,-145.3719,1.096938,94.4252,1.2581,-53.1546,1.3141,-172.8728,1.3453,66.964
243937,3LG,30,1.099566,-25.5577,1.100059,-145.3438,1.097167,94.4533,1.2584,-53.1266,1.3144,-172.8447,1.3456,66.9921
243937,3LG,40,1.099682,-25.5437,1.100174,-145.3298,1.097282,94.4673,1.2585,-53.1126,1.3145,-172.8307,1.3458,67.0062
157347,SLG,0,0.456886,-28.6448,1.241783,-160.1269,1.35449,104.5163,0.5744,-56.0692,1.4837,172.3722,1.6612,77.055
157347,SLG,10,1.093306,-26.0623,1.106119,-145.3844,1.096454,94.8113,1.2512,-53.6312,1.3216,-172.8852,1.3447,67.3501
157347,SLG,20,1.096675,-25.7841,1.103343,-145.3353,1.097011,94.6609,1.2551,-53.3529,1.3183,-172.8362,1.3454,67.1998
157347,SLG,30,1.097795,-25.6904,1.102408,-145.3192,1.09721,94.6106,1.2564,-53.2593,1.3172,-172.8201,1.3457,67.1494
157347,SLG,40,1.098354,-25.6434,1.101938,-145.3113,1.097312,94.5854,1.257,-53.2122,1.3166,-172.8122,1.3458,67.1242
157347,LL,0,0.505263,-29.3555,0.436392,-154.5294,1.333465,92.3447,0.6358,-56.7789,0.5728,178.1077,1.6354,64.8835
157347,LL,10,1.092169,-25.7601,1.099324,-145.9441,1.102034,94.7113,1.2499,-53.3289,1.3135,-173.4449,1.3516,67.2501
157347,LL,20,1.096064,-25.6328,1.099968,-145.6176,1.099829,94.6127,1.2544,-53.2016,1.3143,-173.1185,1.3489,67.1515
157347,LL,30,1.097378,-25.5895,1.100163,-145.508,1.099095,94.5788,1.2559,-53.1583,1.3145,-173.0089,1.348,67.1176
157347,LL,40,1.098038,-25.5677,1.100256,-145.4531,1.098727,94.5617,1.2566,-53.1365,1.3146,-172.954,1.3475,67.1005
157347,3LG,0,0.482921,-34.188,0.482902,-154.0293,0.482276,85.7423,0.6071,-61.6127,0.6338,178.6075,0.6498,58.4149
157347,3LG,10,1.097687,-25.8588,1.098188,-145.6455,1.095303,94.1524,1.2562,-53.4277,1.3121,-173.1463,1.3433,66.6912
157347,3LG,20,1.098866,-25.6808,1.099363,-145.4671,1.096474,94.3304,1.2576,-53.2496,1.3135,-172.968,1.3448,66.8692
157347,3LG,30,1.099255,-25.6212,1.099751,-145.4074,1.09686,94.3899,1.258,-53.19,1.314,-172.9083,1.3452,66.9288
157347,3LG,40,1.099449,-25.5913,1.099944,-145.3775,1.097052,94.4198,1.2583,-53.1602,1.3142,-172.8784,1.3455,66.9586
298162,SLG,0,0.127833,-89.839,1.376329,-160.1669,1.347962,110.1977,0.1607,-117.2616,1.6445,172.3323,1.6532,82.7363
298162,SLG,10,1.089596,-27.0891,1.112854,-145.1995,1.090014,95.0251,1.247,-54.6579,1.3297,-172.7004,1.3369,67.5639
298162,SLG,20,1.094879,-26.3002,1.106715,-145.2387,1.093719,94.7653,1.253,-53.8691,1.3223,-172.7396,1.3414,67.3041
298162,SLG,30,1.096611,-26.0351,1.104656,-145.2539,1.094999,94.6796,1.255,-53.604,1.3199,-172.7548,1.343,67.2184
298162,SLG,40,1.097471,-25.9022,1.103625,-145.2619,1.095647,94.6369,1.256,-53.471,1.3186,-172.7628,1.3438,67.1757
298162,LL,0,0.081873,-136.9292,0.079195,-144.1993,1.395052,95.0043,0.1029,-164.3514,0.1039,-171.5601,1.711,67.543
298162,LL,10,1.081982,-26.5742,1.102129,-146.7826,1.102429,95.1049,1.2383,-54.1431,1.3168,-174.2834,1.3521,67.6437
298162,LL,20,1.09096,-26.0454,1.101493,-146.0369,1.099932,94.8131,1.2485,-53.6142,1.3161,-173.5378,1.349,67.3519
298162,LL,30,1.093973,-25.8658,1.101207,-145.7875,1.099141,94.7132,1.252,-53.4346,1.3157,-173.2884,1.348,67.252
298162,LL,40,1.095483,-25.7754,1.101049,-145.6627,1.098754,94.6628,1.2537,-53.3442,1.3156,-173.1635,1.3476,67.2016
298162,3LG,0,0.006189,-96.1063,0.00619,144.0023,0.006183,23.8626,0.0078,-123.5309,0.0081,116.6391,0.0083,-3.4648
298162,3LG,10,1.094092,-26.4899,1.094659,-146.2775,1.09175,93.5236,1.2521,-54.0588,1.3079,-173.7784,1.339,66.0625
298162,3LG,20,1.097093,-25.9971,1.097624,-145.7839,1.094721,94.0153,1.2556,-53.566,1.3115,-173.2847,1.3426,66.5541
298162,3LG,30,1.098079,-25.8322,1.098597,-145.6187,1.095697,94.1797,1.2567,-53.4011,1.3126,-173.1196,1.3438,66.7185
298162,3LG,40,1.098569,-25.7497,1.099081,-145.5361,1.096182,94.2621,1.2573,-53.3186,1.3132,-173.0369,1.3444,66.8009
165448,SLG,0,0.12099,-90.1427,1.381215,-159.9355,1.342408,110.4056,0.1521,-117.5652,1.6503,172.5637,1.6464,82.9442
165448,SLG,10,1.089337,-27.2223,1.113701,-145.1671,1.089048,95.0474,1.2467,-54.7911,1.3307,-172.668,1.3357,67.5862
165448,SLG,20,1.094767,-26.3674,1.107137,-145.2216,1.093222,94.7758,1.2529,-53.9363,1.3228,-172.7225,1.3408,67.3146
165448,SLG,30,1.09654,-26.08,1.104937,-145.2423,1.094665,94.6864,1.2549,-53.6489,1.3202,-172.7432,1.3426,67.2253
165448,SLG,40,1.097419,-25.9359,1.103835,-145.2531,1.095395,94.642,1.2559,-53.5047,1.3189,-172.754,1.3435,67.1808
165448,LL,0,0.077818,-137.7342,0.075393,-144.8256,1.395302,95.1425,0.0978,-165.1563,0.099,-172.1862,1.7113,67.6813
165448,LL,10,1.08075,-26.6852,1.102678,-146.8833,1.102338,95.1592,1.2369,-54.254,1.3175,-174.3842,1.352,67.698
165448,LL,20,1.090347,-26.1021,1.101793,-146.0869,1.099863,94.8408,1.2478,-53.671,1.3164,-173.5878,1.3489,67.3796
165448,LL,30,1.093566,-25.9039,1.101413,-145.8208,1.09909,94.7318,1.2515,-53.4728,1.316,-173.3217,1.348,67.2706
165448,LL,40,1.095178,-25.8041,1.101206,-145.6876,1.098714,94.6767,1.2534,-53.3729,1.3157,-173.1885,1.3475,67.2155
165448,3LG,0,0.005733,-96.4936,0.005734,143.6103,0.005727,23.4783,0.0072,-123.9182,0.0075,116.2471,0.0077,-3.849
165448,3LG,10,1.093689,-26.5689,1.094269,-146.3565,1.091352,93.4452,1.2517,-54.1378,1.3075,-173.8574,1.3385,65.984
165448,3LG,20,1.096897,-26.0368,1.097435,-145.8236,1.094527,93.9758,1.2553,-53.6057,1.3112,-173.3245,1.3424,66.5147
165448,3LG,30,1.097949,-25.8588,1.098472,-145.6453,1.095569,94.1534,1.2565,-53.4276,1.3125,-173.1461,1.3437,66.6922
165448,3LG,40,1.098472,-25.7696,1.098988,-145.556,1.096087,94.2423,1.2571,-53.3385,1.3131,-173.0569,1.3443,66.7811
165449,SLG,0,0.051798,-97.1227,1.416341,-159.8103,1.339968,111.8966,0.0651,-124.5423,1.6923,172.6889,1.6434,84.4352
165449,SLG,10,1.087936,-28.5855,1.12281,-144.8298,1.078823,95.2931,1.2451,-56.1544,1.3416,-172.3307,1.3231,67.8319
165449,SLG,20,1.094337,-27.0537,1.111613,-145.0394,1.087937,94.8872,1.2524,-54.6226,1.3282,-172.5403,1.3343,67.426
165449,SLG,30,1.096315,-26.5385,1.107901,-145.1178,1.091104,94.7581,1.2547,-54.1074,1.3237,-172.6187,1.3382,67.2969
165449,SLG,40,1.097274,-26.2801,1.10605,-145.1586,1.092712,94.6947,1.2558,-53.8489,1.3215,-172.6595,1.3402,67.2335
165449,LL,0,0.034174,-146.4328,0.03326,-156.0556,1.414491,95.4631,0.043,-173.8515,0.0437,176.587,1.7348,68.0018
165449,LL,10,1.068858,-27.8038,1.109953,-147.9105,1.101664,95.7407,1.2233,-55.3727,1.3262,-175.4114,1.3511,68.2795
165449,LL,20,1.08455,-26.6785,1.105756,-146.5924,1.099159,95.1359,1.2412,-54.2473,1.3212,-174.0933,1.3481,67.6748
165449,LL,30,1.089738,-26.2919,1.104125,-146.1557,1.098536,94.9292,1.2471,-53.8607,1.3192,-173.6566,1.3473,67.468
165449,LL,40,1.092323,-26.0964,1.103267,-145.938,1.098266,94.825,1.2501,-53.6653,1.3182,-173.4389,1.347,67.3639
165449,3LG,0,0.003328,-101.0535,0.003329,138.9893,0.003326,18.941,0.0042,-128.4782,0.0044,111.6261,0.0045,-8.3863
165449,3LG,10,1.090817,-27.3539,1.091592,-147.1414,1.088544,92.6686,1.2484,-54.9228,1.3043,-174.6423,1.335,65.2074
165449,3LG,20,1.095548,-26.4317,1.096184,-146.2182,1.093205,93.5853,1.2538,-54.0006,1.3097,-173.719,1.3408,66.1241
165449,3LG,30,1.09707,-26.1226,1.097659,-145.9088,1.094706,93.8925,1.2555,-53.6914,1.3115,-173.4097,1.3426,66.4314
165449,3LG,40,1.09782,-25.9676,1.098385,-145.7538,1.095447,94.0465,1.2564,-53.5365,1.3124,-173.2547,1.3435,66.5853
287274,SLG,0,0.001476,-100.6912,1.442062,-158.6071,1.310924,113.0398,10625.7821,-100.6912,1.723,173.8921,1.6078,85.5784
287274,SLG,10,1.07653,-29.6948,1.130613,-144.6103,1.071205,95.5402,776.1462,-29.7369,1.3509,-172.1113,1.3138,68.079
287274,SLG,20,1.088882,-27.6206,1.115473,-144.9124,1.083872,94.9986,393.0785,-27.7047,1.3328,-172.4133,1.3293,67.5374
287274,SLG,30,1.092738,-26.9191,1.11046,-145.0291,1.08834,94.8294,263.3502,-27.045,1.3268,-172.53,1.3348,67.3682
287274,SLG,40,1.094614,-26.5665,1.107963,-145.0906,1.090618,94.7471,198.1297,-26.7341,1.3238,-172.5915,1.3376,67.2859
287274,LL,0,0.001984,-78.5114,0.002164,131.5182,1.419671,96.069,14283.8019,-78.5114,15582.1751,131.5182,1.7412,68.6077
287274,LL,10,1.049603,-28.663,1.105683,-148.8025,1.102419,96.2058,756.7517,-28.7057,797.2146,-148.8463,1.3521,68.7446
287274,LL,20,1.07495,-27.1347,1.104014,-147.0343,1.099098,95.3766,388.0493,-27.2187,398.5912,-147.1218,1.348,67.9154
287274,LL,30,1.083354,-26.6019,1.103051,-146.449,1.098392,95.091,261.0887,-26.7278,265.8857,-146.5802,1.3471,67.6298
287274,LL,40,1.087542,-26.3311,1.102493,-146.1575,1.098119,94.9468,196.8496,-26.4988,199.606,-146.3321,1.3468,67.4856
287274,3LG,0,0.002313,-92.8191,0.002313,147.1811,0.002312,27.1776,16649.1963,-92.8191,16651.3652,147.1811,16648.4828,27.1776
287274,3LG,10,1.079156,-27.9957,1.080118,-147.7859,1.077002,92.0351,778.0399,-28.0377,778.782,-147.8298,776.5659,91.9901
287274,3LG,20,1.089754,-26.7608,1.090488,-146.5482,1.087465,93.2607,393.3935,-26.8449,393.7077,-146.6357,392.6471,93.171
287274,3LG,30,1.093217,-26.3438,1.093871,-146.1305,1.090887,93.6744,263.4656,-26.4697,263.673,-146.2616,262.9847,93.54
287274,3LG,40,1.094934,-26.1342,1.095549,-145.9207,1.092585,93.8822,198.1877,-26.3019,198.3487,-146.0953,197.8433,93.7032
283954,SLG,0,0.231079,-36.82,1.389575,-155.8538,1.24377,110.6312,0.2905,-64.2437,1.6603,176.6453,1.5254,83.1699
283954,SLG,10,1.085466,-29.5661,1.127998,-144.4569,1.069909,95.3387,1.2423,-57.135,1.3478,-171.9578,1.3122,67.8775
283954,SLG,20,1.093703,-27.5576,1.114017,-144.8315,1.083251,94.8905,1.2517,-55.1265,1.331,-172.3324,1.3286,67.4293
283954,SLG,30,1.096032,-26.8772,1.109453,-144.9744,1.087935,94.7557,1.2544,-54.446,1.3256,-172.4753,1.3343,67.2945
283954,SLG,40,1.097115,-26.5351,1.107193,-145.0493,1.090319,94.6912,1.2556,-54.1039,1.3229,-172.5502,1.3372,67.23
283954,LL,0,0.252018,-37.7877,0.228582,-160.9271,1.357567,96.3015,0.3168,-65.2124,0.3,171.7104,1.665,68.8402
283954,LL,10,1.05723,-28.7243,1.112367,-148.5621,1.098691,96.1812,1.2139,-56.288,1.3291,-176.063,1.3475,68.72
283954,LL,20,1.079136,-27.1776,1.107516,-146.9019,1.097048,95.3562,1.235,-54.7465,1.3233,-174.4028,1.3455,67.895
283954,LL,30,1.086235,-26.6329,1.105414,-146.3578,1.096987,95.0752,1.2431,-54.2018,1.3208,-173.8587,1.3454,67.614
283954,LL,40,1.089738,-26.3553,1.104275,-146.0879,1.09705,94.934,1.2471,-53.9241,1.3194,-173.5888,1.3455,67.4728
283954,3LG,0,0.244053,-40.8507,0.244067,-160.8612,0.244074,79.1492,0.3068,-68.2754,0.3203,171.7756,0.3289,51.8219
283954,3LG,10,1.084608,-27.9239,1.085696,-147.7129,1.082442,92.113,1.2413,-55.4927,1.2972,-175.2138,1.3276,64.6518
283954,3LG,20,1.092602,-26.7282,1.093398,-146.5145,1.090298,93.2965,1.2504,-54.297,1.3064,-174.0154,1.3372,65.8353
283954,3LG,30,1.095144,-26.3227,1.095839,-146.1086,1.092802,93.6976,1.2533,-53.8916,1.3093,-173.6095,1.3403,66.2364
283954,3LG,40,1.09639,-26.1187,1.097035,-145.9045,1.094032,93.8993,1.2548,-53.6875,1.3108,-173.4054,1.3418,66.4382
283956,SLG,0,0.385333,-52.3865,1.381885,-153.093,1.178352,110.016,0.4844,-79.8107,1.6511,179.4061,1.4452,82.5547
283956,SLG,10,1.0854,-29.489,1.127554,-144.4768,1.070467,95.3287,1.2422,-57.0579,1.3472,-171.9777,1.3129,67.8675
283956,SLG,20,1.093667,-27.5378,1.113913,-144.8373,1.0834,94.8887,1.2516,-55.1066,1.3309,-172.3382,1.3287,67.4275
283956,SLG,30,1.096013,-26.8682,1.109407,-144.9771,1.088003,94.755,1.2543,-54.4371,1.3255,-172.478,1.3344,67.2938
283956,SLG,40,1.097104,-26.53,1.107168,-145.0509,1.090357,94.6908,1.2556,-54.0988,1.3229,-172.5518,1.3373,67.2296
283956,LL,0,0.407521,-47.9873,0.41104,-173.9686,1.324611,97.6825,0.5123,-75.4119,0.5395,158.6684,1.6246,70.2213
283956,LL,10,1.058091,-28.6593,1.111517,-148.5064,1.098783,96.142,1.2129,-56.2255,1.3281,-176.0072,1.3476,68.6808
283956,LL,20,1.07934,-27.1596,1.107281,-146.8887,1.0971,95.3462,1.2352,-54.7284,1.323,-174.3896,1.3455,67.885
283956,LL,30,1.086324,-26.6246,1.105306,-146.352,1.097014,95.0707,1.2432,-54.1935,1.3206,-173.8529,1.3454,67.6096
283956,LL,40,1.089787,-26.3505,1.104214,-146.0846,1.097067,94.9315,1.2472,-53.9193,1.3193,-173.5855,1.3455,67.4704
283956,3LG,0,0.420702,-50.8219,0.420987,-170.8175,0.420662,69.1897,0.5289,-78.2466,0.5526,161.8193,0.5668,41.8623
283956,3LG,10,1.084663,-27.8895,1.085735,-147.6786,1.082494,92.1466,1.2413,-55.4583,1.2973,-175.1795,1.3276,64.6854
283956,3LG,20,1.092614,-26.7191,1.093405,-146.5055,1.090309,93.3053,1.2504,-54.288,1.3064,-174.0064,1.3372,65.8441
283956,3LG,30,1.095149,-26.3186,1.095842,-146.1045,1.092807,93.7016,1.2533,-53.8874,1.3093,-173.6054,1.3403,66.2404
283956,3LG,40,1.096393,-26.1163,1.097037,-145.9022,1.094035,93.9017,1.2548,-53.6852,1.3108,-173.403,1.3418,66.4405
189963,SLG,0,0.471888,-40.275,1.371571,-151.4455,1.141267,109.168,0.5932,-67.6993,1.6388,-178.9464,1.3997,81.7067
189963,SLG,10,1.09258,-30.2463,1.129671,-143.9166,1.059939,95.1269,1.2504,-57.8152,1.3498,-171.4175,1.3,67.6657
189963,SLG,20,1.098429,-27.9192,1.114353,-144.5298,1.078048,94.7491,1.2571,-55.4881,1.3315,-172.0307,1.3222,67.288
189963,SLG,30,1.099458,-27.1219,1.109543,-144.7666,1.084434,94.6531,1.2583,-54.6908,1.3257,-172.2675,1.33,67.1919
189963,SLG,40,1.09979,-26.7198,1.107208,-144.891,1.087683,94.6111,1.2587,-54.2887,1.3229,-172.3919,1.334,67.1499
189963,LL,0,0.55709,-37.2214,0.502597,-167.4032,1.301043,97.5019,0.759,-64.5338,0.6597,165.2337,1.5957,70.0407
189963,LL,10,1.053509,-29.5741,1.121763,-148.8254,1.091528,96.5956,1.218,-57.1266,1.3403,-176.3263,1.3387,69.1344
189963,LL,20,1.078371,-27.6742,1.112895,-146.9969,1.09239,95.5446,1.2341,-55.2431,1.3297,-174.4978,1.3398,68.0834
189963,LL,30,1.086019,-26.9785,1.109115,-146.4115,1.093648,95.1941,1.2429,-54.5474,1.3252,-173.9124,1.3413,67.7329
189963,LL,40,1.089692,-26.6196,1.107089,-146.1244,1.094461,95.0203,1.2471,-54.1885,1.3228,-173.6253,1.3423,67.5591
189963,3LG,0,0.554793,-43.6666,0.554997,-163.6809,0.555164,76.3457,0.7535,-70.9832,0.787,169.059,0.8082,49.1185
189963,3LG,10,1.084015,-28.2773,1.085573,-148.0684,1.082009,91.788,1.2406,-55.8462,1.2971,-175.5693,1.327,64.3268
189963,3LG,20,1.092573,-26.9324,1.093606,-146.7172,1.090301,93.1077,1.2504,-54.5013,1.3067,-174.2181,1.3372,65.6465
189963,3LG,30,1.095194,-26.465,1.096045,-146.2493,1.092862,93.5657,1.2534,-54.0339,1.3096,-173.7502,1.3403,66.1045
189963,3LG,40,1.096455,-26.2277,1.097216,-146.0122,1.094099,93.7982,1.2548,-53.7966,1.311,-173.513,1.3419,66.337
181977,SLG,0,0.558024,-39.895,1.352378,-150.1551,1.114702,107.9282,0.7612,-67.2055,1.6158,-177.6561,1.3671,80.4669
181977,SLG,10,1.094872,-30.2692,1.129022,-143.8089,1.058461,95.038,1.253,-57.838,1.349,-171.3098,1.301,67.5801
181977,SLG,20,1.100022,-27.9402,1.113862,-144.4656,1.077231,94.6931,1.2589,-55.5091,1.3309,-171.9665,1.3212,67.2319
181977,SLG,30,1.10063,-27.1375,1.109168,-144.7217,1.083879,94.6129,1.2596,-54.7063,1.3253,-172.2226,1.3293,67.1517
181977,SLG,40,1.100711,-26.732,1.106907,-144.8566,1.087265,94.5798,1.2597,-54.3008,1.3226,-172.3575,1.3335,67.1186
181977,LL,0,0.633418,-36.41,0.593044,-164.9643,1.277332,97.768,0.9404,-63.613,0.8815,167.8342,1.5666,70.3068
181977,LL,10,1.054239,-29.6611,1.12363,-148.7882,1.08972,96.639,1.2172,-57.2159,1.3425,-176.2891,1.3365,69.1778
181977,LL,20,1.079096,-27.7465,1.114128,-146.9669,1.091131,95.5611,1.235,-55.3153,1.3312,-174.4678,1.3382,68.0999
181977,LL,30,1.08661,-27.0325,1.109987,-146.388,1.092731,95.2028,1.2436,-54.6013,1.3262,-173.8889,1.3402,67.7416
181977,LL,40,1.09018,-26.6622,1.107758,-146.1054,1.093746,95.0258,1.2477,-54.231,1.3236,-173.6063,1.3414,67.5646
181977,3LG,0,0.63754,-41.5849,0.637951,-161.5937,0.63805,78.439,0.9502,-68.7832,0.993,171.259,1.0194,51.3212
181977,3LG,10,1.084596,-28.2856,1.086227,-148.0747,1.082576,91.7838,1.2413,-55.8544,1.2978,-175.5756,1.3277,64.3227
181977,3LG,20,1.092971,-26.9467,1.094038,-146.7297,1.090675,93.0957,1.2508,-54.5155,1.3072,-174.2306,1.3377,65.6346
181977,3LG,30,1.095488,-26.4768,1.096361,-146.2598,1.093136,93.5555,1.2537,-54.0456,1.31,-173.7607,1.3407,66.0943
181977,3LG,40,1.096688,-26.2374,1.097464,-146.0208,1.094315,93.7896,1.2551,-53.8063,1.3113,-173.5217,1.3421,66.3285
181924,SLG,0,0.563331,-33.9784,1.350446,-150.5898,1.12559,107.9144,0.7738,-61.2796,1.6135,-178.0907,1.3805,80.4531
181924,SLG,10,1.101989,-30.5625,1.128401,-143.4593,1.05291,94.8158,1.2612,-58.1314,1.3482,-170.9602,1.3076,67.3732
181924,SLG,20,1.104293,-28.0496,1.112849,-144.2903,1.074831,94.5542,1.2638,-55.6185,1.3297,-171.7912,1.3182,67.093
181924,SLG,30,1.103614,-27.2007,1.108334,-144.6063,1.082386,94.515,1.263,-54.7696,1.3243,-172.1072,1.3275,67.0538
181924,SLG,40,1.102996,-26.7756,1.106223,-144.7708,1.086187,94.5046,1.2623,-54.3445,1.3217,-172.2717,1.3322,67.0434
181924,LL,0,0.63313,-33.7563,0.573457,-159.0722,1.276522,97.3159,0.9397,-60.9597,0.8329,173.6979,1.5656,69.8547
181924,LL,10,1.054451,-30.1585,1.131565,-148.812,1.083955,96.8662,1.2169,-57.7138,1.352,-176.3129,1.3294,69.405
181924,LL,20,1.08064,-27.9953,1.117887,-146.9164,1.087669,95.6238,1.2367,-55.5642,1.3357,-174.4173,1.334,68.1627
181924,LL,30,1.087965,-27.1946,1.11238,-146.3414,1.090354,95.2317,1.2451,-54.7634,1.3291,-173.8423,1.3373,67.7705
181924,LL,40,1.091316,-26.7818,1.109502,-146.0658,1.091946,95.0426,1.249,-54.3507,1.3257,-173.5667,1.3392,67.5814
181924,3LG,0,0.618642,-37.8726,0.618983,-157.8775,0.619106,82.1519,0.9053,-65.0934,0.9459,174.9538,0.9711,55.0134
181924,3LG,10,1.08604,-28.4277,1.087802,-148.2066,1.083894,91.6528,1.2429,-55.9966,1.2997,-175.7075,1.3293,64.1916
181924,3LG,20,1.093963,-27.0138,1.095058,-146.7905,1.091564,93.0329,1.252,-54.5827,1.3084,-174.2914,1.3388,65.5717
181924,3LG,30,1.096211,-26.5203,1.097093,-146.2989,1.093783,93.5145,1.2546,-54.0892,1.3108,-173.7998,1.3415,66.0533
181924,3LG,40,1.097253,-26.2695,1.098032,-146.0496,1.094822,93.7592,1.2557,-53.8384,1.312,-173.5505,1.3427,66.2981
181993,SLG,0,0.597903,-33.0638,1.341226,-150.2292,1.119326,107.3604,0.856,-60.3116,1.6025,-177.7301,1.3728,79.8992
181993,SLG,10,1.104305,-30.644,1.128078,-143.335,1.050999,94.731,1.2638,-58.2128,1.3478,-170.8359,1.3098,67.2937
181993,SLG,20,1.105893,-28.0819,1.112378,-144.224,1.073974,94.4974,1.2656,-55.6507,1.3291,-171.7249,1.3172,67.0362
181993,SLG,30,1.104773,-27.2194,1.107946,-144.5619,1.081848,94.4742,1.2644,-54.7883,1.3238,-172.0628,1.3268,67.0131
181993,SLG,40,1.103899,-26.7884,1.105903,-144.7376,1.085799,94.4729,1.2634,-54.3573,1.3214,-172.2385,1.3317,67.0118
181993,LL,0,0.657,-32.9603,0.605849,-157.1247,1.267245,97.3139,0.9965,-60.1378,0.9133,175.6907,1.5542,69.8526
181993,LL,10,1.054421,-30.3037,1.13404,-148.8166,1.082014,96.946,1.217,-57.859,1.355,-176.3175,1.327,69.4847
181993,LL,20,1.081262,-28.0816,1.119218,-146.8924,1.08634,95.6447,1.2374,-55.6505,1.3373,-174.3933,1.3323,68.1835
181993,LL,30,1.088537,-27.2532,1.113251,-146.3196,1.089416,95.2402,1.2458,-54.822,1.3301,-173.8205,1.3361,67.779
181993,LL,40,1.091804,-26.8259,1.110144,-146.0473,1.091227,95.0469,1.2495,-54.3947,1.3264,-173.5482,1.3383,67.5857
181993,3LG,0,0.64403,-36.2729,0.644432,-156.2684,0.644493,83.7571,0.9656,-63.464,1.009,176.5911,1.0358,56.6459
181993,3LG,10,1.086496,-28.4643,1.088274,-148.2387,1.084284,91.6193,1.2434,-56.0332,1.3003,-175.7396,1.3298,64.1581
181993,3LG,20,1.094335,-27.0347,1.095423,-146.8086,1.091886,93.0131,1.2524,-54.6036,1.3088,-174.3094,1.3391,65.5519
181993,3LG,30,1.096495,-26.5346,1.097367,-146.3113,1.09403,93.5006,1.2549,-54.1035,1.3112,-173.8122,1.3418,66.0395
181993,3LG,40,1.097479,-26.2803,1.098249,-146.059,1.095019,93.7487,1.256,-53.8492,1.3122,-173.5599,1.343,66.2875
181994,SLG,0,0.63323,-32.8317,1.331867,-149.7631,1.110875,106.7638,0.94,-60.0348,1.5913,-177.264,1.3624,79.3025
181994,SLG,10,1.106079,-30.7321,1.127999,-143.2237,1.049183,94.6645,1.2658,-58.3009,1.3478,-170.7246,1.312,67.2321
181994,SLG,20,1.107292,-28.1214,1.112025,-144.1615,1.073119,94.4479,1.2672,-55.6902,1.3287,-171.6624,1.3161,66.9867
181994,SLG,30,1.105816,-27.2436,1.107632,-144.5196,1.081306,94.4378,1.2655,-54.8124,1.3234,-172.0205,1.3262,66.9767
181994,SLG,40,1.104722,-26.8056,1.105638,-144.7057,1.085405,94.4444,1.2643,-54.3745,1.321,-172.2066,1.3312,66.9833
181994,LL,0,0.684296,-32.3209,0.643618,-156.0464,1.257736,97.3698,1.0613,-59.4723,1.007,176.8123,1.5426,69.9086
181994,LL,10,1.053982,-30.4326,1.136127,-148.844,1.080487,97.0285,1.2174,-57.9866,1.3575,-176.3449,1.3252,69.5673
181994,LL,20,1.081683,-28.1671,1.120463,-146.8805,1.085146,95.6692,1.2379,-55.7359,1.3388,-174.3814,1.3309,68.2081
181994,LL,30,1.088985,-27.3125,1.114082,-146.3057,1.088552,95.2512,1.2463,-54.8814,1.3311,-173.8066,1.3351,67.7901
181994,LL,40,1.092206,-26.871,1.110762,-146.0347,1.090559,95.053,1.25,-54.4398,1.3272,-173.5356,1.3375,67.5918
181994,3LG,0,0.675748,-35.1331,0.676256,-155.116,0.676203,84.9045,1.041,-62.2923,1.088,177.774,1.1167,57.8228
181994,3LG,10,1.086773,-28.5041,1.088571,-148.2742,1.0845,91.5827,1.2438,-56.073,1.3006,-175.7751,1.3301,64.1215
181994,3LG,20,1.094636,-27.0595,1.095718,-146.8306,1.092136,92.9895,1.2528,-54.6284,1.3092,-174.3314,1.3395,65.5283
181994,3LG,30,1.096736,-26.552,1.097599,-146.3268,1.094234,93.4838,1.2552,-54.1209,1.3114,-173.8277,1.342,66.0226
181994,3LG,40,1.097676,-26.2937,1.098438,-146.0709,1.095187,93.7357,1.2562,-53.8626,1.3124,-173.5718,1.3432,66.2745
181891,SLG,0,0.687362,-34.7508,1.316141,-148.783,1.092785,105.6968,1.0686,-61.8993,1.5725,-176.2839,1.3403,78.2356
181891,SLG,10,1.103791,-30.6057,1.1283,-143.3196,1.050619,94.7326,1.2632,-58.1745,1.3481,-170.8205,1.3103,67.2963
181891,SLG,20,1.106414,-28.091,1.112329,-144.1928,1.073478,94.4785,1.2662,-55.6598,1.329,-171.6937,1.3166,67.0173
181891,SLG,30,1.105324,-27.2299,1.107847,-144.5363,1.081471,94.4563,1.265,-54.7988,1.3237,-172.0372,1.3264,66.9952
181891,SLG,40,1.104391,-26.7976,1.1058,-144.7167,1.085502,94.4574,1.2639,-54.3665,1.3212,-172.2176,1.3313,66.9963
181891,LL,0,0.729574,-33.1273,0.706642,-156.9391,1.240384,97.636,1.169,-60.2418,1.1635,175.9761,1.5213,70.1748
181891,LL,10,1.0541,-30.1981,1.133089,-148.8328,1.082699,96.9578,1.2173,-57.7525,1.3538,-176.3337,1.3279,69.4966
181891,LL,20,1.081304,-28.0956,1.119688,-146.8922,1.085978,95.6633,1.2375,-55.6645,1.3378,-174.3931,1.3319,68.2021
181891,LL,30,1.088706,-27.2758,1.11373,-146.3143,1.08901,95.2517,1.246,-54.8446,1.3307,-173.8152,1.3356,67.7905
181891,LL,40,1.091996,-26.8475,1.110556,-146.0411,1.090863,95.0546,1.2497,-54.4163,1.3269,-173.542,1.3379,67.5934
181891,3LG,0,0.730919,-35.5422,0.731683,-155.5089,0.73134,84.5055,1.1722,-62.6559,1.2256,177.4246,1.2572,57.4659
181891,3LG,10,1.086538,-28.4306,1.088261,-148.2063,1.084331,91.6487,1.2435,-55.9995,1.3003,-175.7072,1.3299,64.1875
181891,3LG,20,1.094521,-27.0348,1.095591,-146.8085,1.092065,93.0117,1.2526,-54.6037,1.309,-174.3094,1.3394,65.5505
181891,3LG,30,1.096669,-26.5384,1.097529,-146.3148,1.094196,93.496,1.2551,-54.1073,1.3113,-173.8157,1.342,66.0348
181891,3LG,40,1.097631,-26.2846,1.098392,-146.063,1.095163,93.7438,1.2562,-53.8535,1.3124,-173.5639,1.3432,66.2827
255335,SLG,0,0.689364,-33.6292,1.31995,-148.7981,1.092242,105.8773,1.0734,-60.776,1.5771,-176.2991,1.3396,78.4161
255335,SLG,10,1.108119,-30.9114,1.12851,-143.0401,1.045853,94.5835,1.2682,-58.4803,1.3484,-170.541,1.316,67.1603
255335,SLG,20,1.109332,-28.2171,1.11175,-144.049,1.071402,94.3749,1.2696,-55.7859,1.3283,-171.5499,1.314,66.9138
255335,SLG,30,1.107411,-27.3061,1.107303,-144.4415,1.080184,94.3819,1.2674,-54.875,1.323,-171.9424,1.3248,66.9207
255335,SLG,40,1.106006,-26.8516,1.105334,-144.6463,1.084577,94.3998,1.2658,-54.4205,1.3207,-172.1472,1.3302,66.9386
255335,LL,0,0.737253,-31.9563,0.709958,-156.1281,1.242971,97.5935,1.1872,-59.0653,1.1717,176.7897,1.5244,70.1323
255335,LL,10,1.052016,-30.6386,1.139194,-148.938,1.078526,97.1967,1.2196,-58.1867,1.3611,-176.4389,1.3228,69.7355
255335,LL,20,1.081757,-28.3281,1.12259,-146.887,1.083212,95.7315,1.238,-55.8969,1.3413,-174.3879,1.3285,68.2703
255335,LL,30,1.089349,-27.4285,1.115542,-146.2993,1.087096,95.2836,1.2467,-54.9974,1.3329,-173.8002,1.3333,67.8224
255335,LL,40,1.092603,-26.9604,1.111859,-146.0259,1.089414,95.0735,1.2504,-54.5293,1.3285,-173.5268,1.3361,67.6123
255335,3LG,0,0.737751,-34.6416,0.738583,-154.6017,0.738196,85.4127,1.1884,-61.7503,1.2428,178.3365,1.2746,58.3776
255335,3LG,10,1.086732,-28.5779,1.088589,-148.3411,1.084382,91.5154,1.2437,-56.1467,1.3007,-175.842,1.3299,64.0542
255335,3LG,20,1.094888,-27.113,1.095973,-146.8791,1.092308,92.9387,1.253,-54.6819,1.3095,-174.38,1.3397,65.4776
255335,3LG,30,1.096979,-26.5911,1.097836,-146.3625,1.094416,93.4462,1.2554,-54.16,1.3117,-173.8633,1.3423,65.9851
255335,3LG,40,1.097889,-26.3243,1.098642,-146.0989,1.095351,93.7061,1.2565,-53.8931,1.3127,-173.5997,1.3434,66.2449
182030,SLG,0,0.703608,-34.305,1.3167,-148.463,1.085668,105.6089,1.1073,-61.4397,1.5732,-175.9639,1.3315,78.1476
182030,SLG,10,1.107642,-30.8696,1.128427,-143.0634,1.046286,94.593,1.2676,-58.4384,1.3483,-170.5643,1.3155,67.1686
182030,SLG,20,1.109169,-28.2077,1.11176,-144.0553,1.071499,94.3787,1.2694,-55.7766,1.3284,-171.5562,1.3141,66.9176
182030,SLG,30,1.107333,-27.3022,1.107313,-144.4443,1.080225,94.3838,1.2673,-54.871,1.323,-171.9452,1.3248,66.9226
182030,SLG,40,1.10596,-26.8495,1.105341,-144.6478,1.0846,94.4009,1.2657,-54.4183,1.3207,-172.1487,1.3302,66.9397
182030,LL,0,0.749701,-31.978,0.729988,-156.557,1.238972,97.7277,1.2168,-59.0784,1.2214,176.3754,1.5195,70.2665
182030,LL,10,1.052226,-30.5844,1.138389,-148.9174,1.078898,97.1713,1.2194,-58.1332,1.3602,-176.4183,1.3232,69.7101
182030,LL,20,1.081731,-28.3134,1.122385,-146.8851,1.083346,95.7275,1.238,-55.8822,1.341,-174.386,1.3287,68.2663
182030,LL,30,1.089325,-27.422,1.115454,-146.2989,1.087158,95.2823,1.2467,-54.9908,1.3328,-173.7998,1.3333,67.8211
182030,LL,40,1.092586,-26.9568,1.111811,-146.0258,1.08945,95.0728,1.2504,-54.5257,1.3284,-173.5267,1.3362,67.6117
182030,3LG,0,0.755631,-34.6987,0.756579,-154.6535,0.756079,85.3603,1.2309,-61.7952,1.2874,178.2965,1.3202,58.3365
182030,3LG,10,1.086624,-28.5563,1.088465,-148.3201,1.084278,91.5359,1.2436,-56.1252,1.3005,-175.821,1.3298,64.0748
182030,3LG,20,1.094846,-27.1074,1.095928,-146.8737,1.092269,92.9441,1.253,-54.6763,1.3094,-174.3746,1.3396,65.483
182030,3LG,30,1.096958,-26.5886,1.097814,-146.3601,1.094396,93.4487,1.2554,-54.1575,1.3117,-173.861,1.3422,65.9875
182030,3LG,40,1.097876,-26.3229,1.098629,-146.0975,1.095339,93.7075,1.2565,-53.8917,1.3127,-173.5984,1.3434,66.2463
182153,SLG,0,0.774974,-35.4103,1.306208,-147.0729,1.058544,104.589,1.2769,-62.4943,1.5607,-174.5739,1.3009,77.1308
182153,SLG,10,1.108281,-31.5835,1.134394,-142.6321,1.03665,94.7123,1.2684,-59.1524,1.3554,-170.133,1.3273,67.3142
182153,SLG,20,1.112791,-28.5802,1.112634,-143.7518,1.06604,94.2535,1.2735,-56.1491,1.3294,-171.2527,1.3074,66.7924
182153,SLG,30,1.110439,-27.5527,1.107482,-144.2286,1.076582,94.2772,1.2708,-55.1215,1.3232,-171.7295,1.3204,66.8161
182153,SLG,40,1.108554,-27.0368,1.105298,-144.4819,1.081883,94.3123,1.2687,-54.6056,1.3206,-171.9828,1.3269,66.8511
182153,LL,0,0.828861,-32.0705,0.812365,-157.4258,1.22078,98.0048,1.405,-59.1246,1.4259,175.5556,1.4972,70.5436
182153,LL,10,1.043969,-30.9125,1.143265,-149.4525,1.078425,97.6634,1.2286,-58.4369,1.366,-176.9533,1.3226,70.2021
182153,LL,20,1.078958,-28.7822,1.127985,-147.0383,1.079153,95.9833,1.2348,-56.3511,1.3477,-174.5392,1.3235,68.5221
182153,LL,30,1.088352,-27.7704,1.119374,-146.3682,1.083734,95.4282,1.2456,-55.3393,1.3374,-173.8691,1.3291,67.967
182153,LL,40,1.092222,-27.2291,1.114768,-146.0652,1.086679,95.171,1.25,-54.7979,1.3319,-173.5661,1.3328,67.7098
182153,3LG,0,0.840709,-35.1028,0.842392,-155.0141,0.840969,84.9864,1.4331,-62.151,1.5004,177.9818,1.5366,58.0069
182153,3LG,10,1.084992,-28.8106,1.087161,-148.5662,1.082679,91.3025,1.2417,-56.3795,1.299,-176.0671,1.3279,63.8413
182153,3LG,20,1.094481,-27.2931,1.095682,-147.0486,1.091778,92.7701,1.2526,-54.862,1.3091,-174.5495,1.339,65.3089
182153,3LG,30,1.096873,-26.7257,1.09778,-146.4889,1.094194,93.3186,1.2553,-54.2946,1.3116,-173.9898,1.342,65.8574
182153,3LG,40,1.09788,-26.4306,1.098659,-146.1989,1.095245,93.6046,1.2565,-53.9995,1.3127,-173.6998,1.3433,66.1434
182158,SLG,0,0.799011,-35.1957,1.29966,-146.7268,1.053282,104.1225,1.334,-62.2656,1.5529,-174.2278,1.3071,76.6789
182158,SLG,10,1.108179,-31.818,1.136834,-142.4869,1.033258,94.7848,1.2683,-59.3869,1.3583,-169.9878,1.3315,67.3958
182158,SLG,20,1.11425,-28.6998,1.112857,-143.6394,1.064074,94.2018,1.2752,-56.2687,1.3297,-171.1403,1.305,66.7406
182158,SLG,30,1.111728,-27.6316,1.10743,-144.1482,1.075285,94.2319,1.2723,-55.2005,1.3232,-171.6491,1.3188,66.7707
182158,SLG,40,1.10964,-27.0949,1.105176,-144.4201,1.080927,94.2742,1.2699,-54.6638,1.3205,-171.921,1.3257,66.8131
182158,LL,0,0.849525,-31.8178,0.836698,-156.9135,1.213875,98.001,1.4541,-58.8618,1.4863,176.0798,1.4888,70.5398
182158,LL,10,1.043499,-30.7645,1.142319,-149.6575,1.080392,97.7382,1.2291,-58.2875,1.3649,-177.1584,1.3251,70.277
182158,LL,20,1.078013,-28.9384,1.130145,-147.0861,1.077621,96.0795,1.2337,-56.5073,1.3503,-174.587,1.3217,68.6183
182158,LL,30,1.088135,-27.8905,1.12091,-146.3834,1.08241,95.4805,1.2453,-55.4593,1.3393,-173.8843,1.3275,68.0193
182158,LL,40,1.092235,-27.3236,1.115924,-146.0701,1.085593,95.2046,1.25,-54.8924,1.3333,-173.571,1.3314,67.7434
182158,3LG,0,0.862692,-34.6656,0.864596,-154.5559,0.862797,85.434,1.4786,-61.7083,1.5425,178.4416,1.588,58.4613
182158,3LG,10,1.084565,-28.8774,1.086833,-148.632,1.082282,91.241,1.2412,-56.4462,1.2986,-176.1329,1.3274,63.7798
182158,3LG,20,1.094476,-27.3482,1.095716,-147.1002,1.09173,92.7187,1.2526,-54.917,1.3092,-174.6011,1.339,65.2575
182158,3LG,30,1.096945,-26.7673,1.097866,-146.5277,1.094223,93.2791,1.2554,-54.3361,1.3118,-174.0286,1.342,65.8179
182158,3LG,40,1.097967,-26.4636,1.09875,-146.2297,1.095294,93.5729,1.2566,-54.0325,1.3128,-173.7306,1.3433,66.1117
182162,SLG,0,0.819234,-34.8955,1.293602,-146.4661,1.049818,103.7133,1.3821,-61.9544,1.5456,-173.9671,1.3113,76.2792
182162,SLG,10,1.107861,-32.0533,1.139475,-142.3462,1.029825,94.8701,1.2679,-59.6222,1.3615,-169.8471,1.3358,67.4903
182162,SLG,20,1.115709,-28.8198,1.113115,-143.5254,1.062066,94.1503,1.2769,-56.3887,1.33,-171.0263,1.3026,66.6891
182162,SLG,30,1.113044,-27.7102,1.107376,-144.0663,1.073968,94.1855,1.2738,-55.279,1.3231,-171.5672,1.3172,66.7243
182162,SLG,40,1.110758,-27.1523,1.105042,-144.3572,1.079961,94.2349,1.2712,-54.7211,1.3203,-171.8581,1.3245,66.7738
182162,LL,0,0.866583,-31.5766,0.856242,-156.3706,1.207898,97.9674,1.472,-58.6285,1.5348,176.6316,1.4814,70.5062
182162,LL,10,1.043123,-30.6196,1.14127,-149.8549,1.082362,97.8085,1.2296,-58.1415,1.3636,-177.3558,1.3275,70.3473
182162,LL,20,1.07696,-29.092,1.132377,-147.1382,1.076132,96.1818,1.2325,-56.6609,1.353,-174.6391,1.3198,68.7206
182162,LL,30,1.087892,-28.0105,1.122509,-146.3988,1.081071,95.5354,1.245,-55.5793,1.3412,-173.8997,1.3259,68.0742
182162,LL,40,1.092251,-27.4183,1.117125,-146.0741,1.084484,95.2392,1.25,-54.9872,1.3348,-173.575,1.3301,67.778
182162,3LG,0,0.880205,-34.2415,0.882273,-154.113,0.880146,85.8661,1.4496,-61.3261,1.512,178.8442,1.557,58.8552
182162,3LG,10,1.084158,-28.9403,1.086525,-148.6947,1.081918,91.1829,1.2408,-56.5091,1.2982,-176.1956,1.3269,63.7218
182162,3LG,20,1.094489,-27.4014,1.095774,-147.1499,1.091703,92.6693,1.2526,-54.9702,1.3093,-174.6508,1.3389,65.2082
182162,3LG,30,1.097035,-26.8076,1.097971,-146.5652,1.094268,93.2409,1.2555,-54.3765,1.3119,-174.0661,1.3421,65.7798
182162,3LG,40,1.098069,-26.4956,1.098858,-146.2594,1.095358,93.5423,1.2567,-54.0645,1.3129,-173.7603,1.3434,66.0811
